<?xml version="1.0" ?>
<routes>
   <route id="0" town="Town01">
      <weathers>
         <weather cloudiness="5.0" fog_density="2.0" fog_distance="0.75" fog_falloff="0.1" mie_scattering_scale="0.03" precipitation="0.0" precipitation_deposits="0.0" route_percentage="0" scattering_intensity="1.0" sun_altitude_angle="90.0" sun_azimuth_angle="-1.0" wetness="0.0" wind_intensity="10.0"/>
      </weathers>
      <scenarios>
         <scenario name="RandomRun_0" type="RandomRun">
            <trigger_point x="388.5648498535156" y="2.709679126739502" yaw="26.323060989379883" z="0.0"/>
         </scenario>
      </scenarios>
      <waypoints>
         <position x="388.5648498535156" y="2.709679126739502" yaw="26.323060989379883" z="0.0"/>
         <position x="389.85205078125" y="3.5439934730529785" yaw="39.57684326171875" z="0.0"/>
      </waypoints>
   </route>
   <route id="1" town="Town01">
      <weathers>
         <weather cloudiness="5.0" fog_density="2.0" fog_distance="0.75" fog_falloff="0.1" mie_scattering_scale="0.03" precipitation="0.0" precipitation_deposits="0.0" route_percentage="0" scattering_intensity="1.0" sun_altitude_angle="90.0" sun_azimuth_angle="-1.0" wetness="0.0" wind_intensity="10.0"/>
      </weathers>
      <scenarios>
         <scenario name="RandomRun_0" type="RandomRun">
            <trigger_point x="392.3139953613281" y="64.8475570678711" yaw="90.06876373291016" z="0.0"/>
         </scenario>
      </scenarios>
      <waypoints>
         <position x="392.3139953613281" y="64.8475570678711" yaw="90.06876373291016" z="0.0"/>
         <position x="392.3116149902344" y="66.84754943847656" yaw="90.06876373291016" z="0.0"/>
      </waypoints>
   </route>
   <route id="2" town="Town01">
      <weathers>
         <weather cloudiness="5.0" fog_density="2.0" fog_distance="0.75" fog_falloff="0.1" mie_scattering_scale="0.03" precipitation="0.0" precipitation_deposits="0.0" route_percentage="0" scattering_intensity="1.0" sun_altitude_angle="90.0" sun_azimuth_angle="-1.0" wetness="0.0" wind_intensity="10.0"/>
      </weathers>
      <scenarios>
         <scenario name="RandomRun_0" type="RandomRun">
            <trigger_point x="235.41908264160156" y="133.4747772216797" yaw="0.025599390268325806" z="0.0"/>
         </scenario>
      </scenarios>
      <waypoints>
         <position x="235.41908264160156" y="133.4747772216797" yaw="0.025599390268325806" z="0.0"/>
         <position x="237.41908264160156" y="133.4756622314453" yaw="0.025599390268325806" z="0.0"/>
      </waypoints>
   </route>
   <route id="3" town="Town01">
      <weathers>
         <weather cloudiness="5.0" fog_density="2.0" fog_distance="0.75" fog_falloff="0.1" mie_scattering_scale="0.03" precipitation="0.0" precipitation_deposits="0.0" route_percentage="0" scattering_intensity="1.0" sun_altitude_angle="90.0" sun_azimuth_angle="-1.0" wetness="0.0" wind_intensity="10.0"/>
      </weathers>
      <scenarios>
         <scenario name="RandomRun_0" type="RandomRun">
            <trigger_point x="222.07977294921875" y="1.9627008438110352" yaw="0.0061187744140625" z="0.0"/>
         </scenario>
      </scenarios>
      <waypoints>
         <position x="222.07977294921875" y="1.9627008438110352" yaw="0.0061187744140625" z="0.0"/>
         <position x="224.07977294921875" y="1.962914228439331" yaw="0.0061187744140625" z="0.0"/>
      </waypoints>
   </route>
   <route id="4" town="Town01">
      <weathers>
         <weather cloudiness="5.0" fog_density="2.0" fog_distance="0.75" fog_falloff="0.1" mie_scattering_scale="0.03" precipitation="0.0" precipitation_deposits="0.0" route_percentage="0" scattering_intensity="1.0" sun_altitude_angle="90.0" sun_azimuth_angle="-1.0" wetness="0.0" wind_intensity="10.0"/>
      </weathers>
      <scenarios>
         <scenario name="RandomRun_0" type="RandomRun">
            <trigger_point x="155.41983032226562" y="199.14527893066406" yaw="0.004655823577195406" z="0.0"/>
         </scenario>
      </scenarios>
      <waypoints>
         <position x="155.41983032226562" y="199.14527893066406" yaw="0.004655823577195406" z="0.0"/>
         <position x="157.41983032226562" y="199.1454315185547" yaw="0.004655823577195406" z="0.0"/>
      </waypoints>
   </route>
   <route id="5" town="Town01">
      <weathers>
         <weather cloudiness="5.0" fog_density="2.0" fog_distance="0.75" fog_falloff="0.1" mie_scattering_scale="0.03" precipitation="0.0" precipitation_deposits="0.0" route_percentage="0" scattering_intensity="1.0" sun_altitude_angle="90.0" sun_azimuth_angle="-1.0" wetness="0.0" wind_intensity="10.0"/>
      </weathers>
      <scenarios>
         <scenario name="RandomRun_0" type="RandomRun">
            <trigger_point x="233.1702423095703" y="59.48260498046875" yaw="-0.006981649901717901" z="0.0"/>
         </scenario>
      </scenarios>
      <waypoints>
         <position x="233.1702423095703" y="59.48260498046875" yaw="-0.006981649901717901" z="0.0"/>
         <position x="235.1702423095703" y="59.48236083984375" yaw="-0.006981649901717901" z="0.0"/>
      </waypoints>
   </route>
   <route id="6" town="Town01">
      <weathers>
         <weather cloudiness="5.0" fog_density="2.0" fog_distance="0.75" fog_falloff="0.1" mie_scattering_scale="0.03" precipitation="0.0" precipitation_deposits="0.0" route_percentage="0" scattering_intensity="1.0" sun_altitude_angle="90.0" sun_azimuth_angle="-1.0" wetness="0.0" wind_intensity="10.0"/>
      </weathers>
      <scenarios>
         <scenario name="RandomRun_0" type="RandomRun">
            <trigger_point x="234.670166015625" y="195.15171813964844" yaw="180.00465393066406" z="0.0"/>
         </scenario>
      </scenarios>
      <waypoints>
         <position x="234.670166015625" y="195.15171813964844" yaw="180.00465393066406" z="0.0"/>
         <position x="232.670166015625" y="195.15155029296875" yaw="180.00465393066406" z="0.0"/>
      </waypoints>
   </route>
   <route id="7" town="Town01">
      <weathers>
         <weather cloudiness="5.0" fog_density="2.0" fog_distance="0.75" fog_falloff="0.1" mie_scattering_scale="0.03" precipitation="0.0" precipitation_deposits="0.0" route_percentage="0" scattering_intensity="1.0" sun_altitude_angle="90.0" sun_azimuth_angle="-1.0" wetness="0.0" wind_intensity="10.0"/>
      </weathers>
      <scenarios>
         <scenario name="RandomRun_0" type="RandomRun">
            <trigger_point x="338.74322509765625" y="259.451171875" yaw="270.03460693359375" z="0.0"/>
         </scenario>
      </scenarios>
      <waypoints>
         <position x="338.74322509765625" y="259.451171875" yaw="270.03460693359375" z="0.0"/>
         <position x="338.7444152832031" y="257.451171875" yaw="270.03460693359375" z="0.0"/>
      </waypoints>
   </route>
   <route id="8" town="Town01">
      <weathers>
         <weather cloudiness="5.0" fog_density="2.0" fog_distance="0.75" fog_falloff="0.1" mie_scattering_scale="0.03" precipitation="0.0" precipitation_deposits="0.0" route_percentage="0" scattering_intensity="1.0" sun_altitude_angle="90.0" sun_azimuth_angle="-1.0" wetness="0.0" wind_intensity="10.0"/>
      </weathers>
      <scenarios>
         <scenario name="RandomRun_0" type="RandomRun">
            <trigger_point x="392.3006896972656" y="149.85037231445312" yaw="89.9879150390625" z="0.0"/>
         </scenario>
      </scenarios>
      <waypoints>
         <position x="392.3006896972656" y="149.85037231445312" yaw="89.9879150390625" z="0.0"/>
         <position x="392.3011169433594" y="151.85037231445312" yaw="89.9879150390625" z="0.0"/>
      </waypoints>
   </route>
   <route id="9" town="Town01">
      <weathers>
         <weather cloudiness="5.0" fog_density="2.0" fog_distance="0.75" fog_falloff="0.1" mie_scattering_scale="0.03" precipitation="0.0" precipitation_deposits="0.0" route_percentage="0" scattering_intensity="1.0" sun_altitude_angle="90.0" sun_azimuth_angle="-1.0" wetness="0.0" wind_intensity="10.0"/>
      </weathers>
      <scenarios>
         <scenario name="RandomRun_0" type="RandomRun">
            <trigger_point x="392.33612060546875" y="282.8507080078125" yaw="89.97773742675781" z="0.0"/>
         </scenario>
      </scenarios>
      <waypoints>
         <position x="392.33612060546875" y="282.8507080078125" yaw="89.97773742675781" z="0.0"/>
         <position x="392.3369140625" y="284.8507080078125" yaw="89.97773742675781" z="0.0"/>
      </waypoints>
   </route>
   <route id="10" town="Town01">
      <weathers>
         <weather cloudiness="5.0" fog_density="2.0" fog_distance="0.75" fog_falloff="0.1" mie_scattering_scale="0.03" precipitation="0.0" precipitation_deposits="0.0" route_percentage="0" scattering_intensity="1.0" sun_altitude_angle="90.0" sun_azimuth_angle="-1.0" wetness="0.0" wind_intensity="10.0"/>
      </weathers>
      <scenarios>
         <scenario name="RandomRun_0" type="RandomRun">
            <trigger_point x="-2.047924280166626" y="110.9610366821289" yaw="89.9700698852539" z="0.0"/>
         </scenario>
      </scenarios>
      <waypoints>
         <position x="-2.047924280166626" y="110.9610366821289" yaw="89.9700698852539" z="0.0"/>
         <position x="-2.046879768371582" y="112.9610366821289" yaw="89.9700698852539" z="0.0"/>
      </waypoints>
   </route>
   <route id="11" town="Town01">
      <weathers>
         <weather cloudiness="5.0" fog_density="2.0" fog_distance="0.75" fog_falloff="0.1" mie_scattering_scale="0.03" precipitation="0.0" precipitation_deposits="0.0" route_percentage="0" scattering_intensity="1.0" sun_altitude_angle="90.0" sun_azimuth_angle="-1.0" wetness="0.0" wind_intensity="10.0"/>
      </weathers>
      <scenarios>
         <scenario name="RandomRun_0" type="RandomRun">
            <trigger_point x="181.72021484375" y="326.5983581542969" yaw="180.00611877441406" z="0.0"/>
         </scenario>
      </scenarios>
      <waypoints>
         <position x="181.72021484375" y="326.5983581542969" yaw="180.00611877441406" z="0.0"/>
         <position x="179.72021484375" y="326.59814453125" yaw="180.00611877441406" z="0.0"/>
      </waypoints>
   </route>
   <route id="12" town="Town01">
      <weathers>
         <weather cloudiness="5.0" fog_density="2.0" fog_distance="0.75" fog_falloff="0.1" mie_scattering_scale="0.03" precipitation="0.0" precipitation_deposits="0.0" route_percentage="0" scattering_intensity="1.0" sun_altitude_angle="90.0" sun_azimuth_angle="-1.0" wetness="0.0" wind_intensity="10.0"/>
      </weathers>
      <scenarios>
         <scenario name="RandomRun_0" type="RandomRun">
            <trigger_point x="307.640869140625" y="129.5070343017578" yaw="180.02560424804688" z="0.0"/>
         </scenario>
      </scenarios>
      <waypoints>
         <position x="307.640869140625" y="129.5070343017578" yaw="180.02560424804688" z="0.0"/>
         <position x="305.640869140625" y="129.5061492919922" yaw="180.02560424804688" z="0.0"/>
      </waypoints>
   </route>
   <route id="13" town="Town01">
      <weathers>
         <weather cloudiness="5.0" fog_density="2.0" fog_distance="0.75" fog_falloff="0.1" mie_scattering_scale="0.03" precipitation="0.0" precipitation_deposits="0.0" route_percentage="0" scattering_intensity="1.0" sun_altitude_angle="90.0" sun_azimuth_angle="-1.0" wetness="0.0" wind_intensity="10.0"/>
      </weathers>
      <scenarios>
         <scenario name="RandomRun_0" type="RandomRun">
            <trigger_point x="30.030651092529297" y="1.9738075733184814" yaw="359.9813232421875" z="0.0"/>
         </scenario>
      </scenarios>
      <waypoints>
         <position x="30.030651092529297" y="1.9738075733184814" yaw="359.9813232421875" z="0.0"/>
         <position x="32.0306510925293" y="1.9731557369232178" yaw="359.9813232421875" z="0.0"/>
      </waypoints>
   </route>
   <route id="14" town="Town01">
      <weathers>
         <weather cloudiness="5.0" fog_density="2.0" fog_distance="0.75" fog_falloff="0.1" mie_scattering_scale="0.03" precipitation="0.0" precipitation_deposits="0.0" route_percentage="0" scattering_intensity="1.0" sun_altitude_angle="90.0" sun_azimuth_angle="-1.0" wetness="0.0" wind_intensity="10.0"/>
      </weathers>
      <scenarios>
         <scenario name="RandomRun_0" type="RandomRun">
            <trigger_point x="1.9585822820663452" y="39.60080337524414" yaw="270.0220642089844" z="0.0"/>
         </scenario>
      </scenarios>
      <waypoints>
         <position x="1.9585822820663452" y="39.60080337524414" yaw="270.0220642089844" z="0.0"/>
         <position x="1.959352731704712" y="37.60080337524414" yaw="270.0220642089844" z="0.0"/>
      </waypoints>
   </route>
   <route id="15" town="Town01">
      <weathers>
         <weather cloudiness="5.0" fog_density="2.0" fog_distance="0.75" fog_falloff="0.1" mie_scattering_scale="0.03" precipitation="0.0" precipitation_deposits="0.0" route_percentage="0" scattering_intensity="1.0" sun_altitude_angle="90.0" sun_azimuth_angle="-1.0" wetness="0.0" wind_intensity="10.0"/>
      </weathers>
      <scenarios>
         <scenario name="RandomRun_0" type="RandomRun">
            <trigger_point x="319.7200012207031" y="326.6099853515625" yaw="180.0" z="0.0"/>
         </scenario>
      </scenarios>
      <waypoints>
         <position x="319.7200012207031" y="326.6099853515625" yaw="180.0" z="0.0"/>
         <position x="317.7200012207031" y="326.6099853515625" yaw="180.0" z="0.0"/>
      </waypoints>
   </route>
   <route id="16" town="Town01">
      <weathers>
         <weather cloudiness="5.0" fog_density="2.0" fog_distance="0.75" fog_falloff="0.1" mie_scattering_scale="0.03" precipitation="0.0" precipitation_deposits="0.0" route_percentage="0" scattering_intensity="1.0" sun_altitude_angle="90.0" sun_azimuth_angle="-1.0" wetness="0.0" wind_intensity="10.0"/>
      </weathers>
      <scenarios>
         <scenario name="RandomRun_0" type="RandomRun">
            <trigger_point x="216.64088439941406" y="129.4663848876953" yaw="180.02560424804688" z="0.0"/>
         </scenario>
      </scenarios>
      <waypoints>
         <position x="216.64088439941406" y="129.4663848876953" yaw="180.02560424804688" z="0.0"/>
         <position x="214.64088439941406" y="129.46548461914062" yaw="180.02560424804688" z="0.0"/>
      </waypoints>
   </route>
   <route id="17" town="Town01">
      <weathers>
         <weather cloudiness="5.0" fog_density="2.0" fog_distance="0.75" fog_falloff="0.1" mie_scattering_scale="0.03" precipitation="0.0" precipitation_deposits="0.0" route_percentage="0" scattering_intensity="1.0" sun_altitude_angle="90.0" sun_azimuth_angle="-1.0" wetness="0.0" wind_intensity="10.0"/>
      </weathers>
      <scenarios>
         <scenario name="RandomRun_0" type="RandomRun">
            <trigger_point x="251.0797882080078" y="1.9657959938049316" yaw="0.0061187744140625" z="0.0"/>
         </scenario>
      </scenarios>
      <waypoints>
         <position x="251.0797882080078" y="1.9657959938049316" yaw="0.0061187744140625" z="0.0"/>
         <position x="253.0797882080078" y="1.9660093784332275" yaw="0.0061187744140625" z="0.0"/>
      </waypoints>
   </route>
   <route id="18" town="Town01">
      <weathers>
         <weather cloudiness="5.0" fog_density="2.0" fog_distance="0.75" fog_falloff="0.1" mie_scattering_scale="0.03" precipitation="0.0" precipitation_deposits="0.0" route_percentage="0" scattering_intensity="1.0" sun_altitude_angle="90.0" sun_azimuth_angle="-1.0" wetness="0.0" wind_intensity="10.0"/>
      </weathers>
      <scenarios>
         <scenario name="RandomRun_0" type="RandomRun">
            <trigger_point x="132.41909790039062" y="133.4287567138672" yaw="0.025599390268325806" z="0.0"/>
         </scenario>
      </scenarios>
      <waypoints>
         <position x="132.41909790039062" y="133.4287567138672" yaw="0.025599390268325806" z="0.0"/>
         <position x="134.41909790039062" y="133.4296417236328" yaw="0.025599390268325806" z="0.0"/>
      </waypoints>
   </route>
   <route id="19" town="Town01">
      <weathers>
         <weather cloudiness="5.0" fog_density="2.0" fog_distance="0.75" fog_falloff="0.1" mie_scattering_scale="0.03" precipitation="0.0" precipitation_deposits="0.0" route_percentage="0" scattering_intensity="1.0" sun_altitude_angle="90.0" sun_azimuth_angle="-1.0" wetness="0.0" wind_intensity="10.0"/>
      </weathers>
      <scenarios>
         <scenario name="RandomRun_0" type="RandomRun">
            <trigger_point x="269.4198303222656" y="199.154541015625" yaw="0.004655823577195406" z="0.0"/>
         </scenario>
      </scenarios>
      <waypoints>
         <position x="269.4198303222656" y="199.154541015625" yaw="0.004655823577195406" z="0.0"/>
         <position x="271.4198303222656" y="199.15469360351562" yaw="0.004655823577195406" z="0.0"/>
      </waypoints>
   </route>
   <route id="20" town="Town01">
      <weathers>
         <weather cloudiness="5.0" fog_density="2.0" fog_distance="0.75" fog_falloff="0.1" mie_scattering_scale="0.03" precipitation="0.0" precipitation_deposits="0.0" route_percentage="0" scattering_intensity="1.0" sun_altitude_angle="90.0" sun_azimuth_angle="-1.0" wetness="0.0" wind_intensity="10.0"/>
      </weathers>
      <scenarios>
         <scenario name="RandomRun_0" type="RandomRun">
            <trigger_point x="248.41983032226562" y="199.15283203125" yaw="0.004655823577195406" z="0.0"/>
         </scenario>
      </scenarios>
      <waypoints>
         <position x="248.41983032226562" y="199.15283203125" yaw="0.004655823577195406" z="0.0"/>
         <position x="250.41983032226562" y="199.15298461914062" yaw="0.004655823577195406" z="0.0"/>
      </waypoints>
   </route>
   <route id="21" town="Town01">
      <weathers>
         <weather cloudiness="5.0" fog_density="2.0" fog_distance="0.75" fog_falloff="0.1" mie_scattering_scale="0.03" precipitation="0.0" precipitation_deposits="0.0" route_percentage="0" scattering_intensity="1.0" sun_altitude_angle="90.0" sun_azimuth_angle="-1.0" wetness="0.0" wind_intensity="10.0"/>
      </weathers>
      <scenarios>
         <scenario name="RandomRun_0" type="RandomRun">
            <trigger_point x="-0.9326622486114502" y="3.9793758392333984" yaw="116.81529235839844" z="0.0"/>
         </scenario>
      </scenarios>
      <waypoints>
         <position x="-0.9326622486114502" y="3.9793758392333984" yaw="116.81529235839844" z="0.0"/>
         <position x="-1.774423360824585" y="6.313923358917236" yaw="102.83998107910156" z="0.0"/>
      </waypoints>
   </route>
   <route id="22" town="Town01">
      <weathers>
         <weather cloudiness="5.0" fog_density="2.0" fog_distance="0.75" fog_falloff="0.1" mie_scattering_scale="0.03" precipitation="0.0" precipitation_deposits="0.0" route_percentage="0" scattering_intensity="1.0" sun_altitude_angle="90.0" sun_azimuth_angle="-1.0" wetness="0.0" wind_intensity="10.0"/>
      </weathers>
      <scenarios>
         <scenario name="RandomRun_0" type="RandomRun">
            <trigger_point x="66.64105987548828" y="326.5703125" yaw="180.03070068359375" z="0.0"/>
         </scenario>
      </scenarios>
      <waypoints>
         <position x="66.64105987548828" y="326.5703125" yaw="180.03070068359375" z="0.0"/>
         <position x="64.64105987548828" y="326.5692443847656" yaw="180.03070068359375" z="0.0"/>
      </waypoints>
   </route>
   <route id="23" town="Town01">
      <weathers>
         <weather cloudiness="5.0" fog_density="2.0" fog_distance="0.75" fog_falloff="0.1" mie_scattering_scale="0.03" precipitation="0.0" precipitation_deposits="0.0" route_percentage="0" scattering_intensity="1.0" sun_altitude_angle="90.0" sun_azimuth_angle="-1.0" wetness="0.0" wind_intensity="10.0"/>
      </weathers>
      <scenarios>
         <scenario name="RandomRun_0" type="RandomRun">
            <trigger_point x="396.291748046875" y="107.53955841064453" yaw="-90.0120849609375" z="0.0"/>
         </scenario>
      </scenarios>
      <waypoints>
         <position x="396.291748046875" y="107.53955841064453" yaw="-90.0120849609375" z="0.0"/>
         <position x="396.2913513183594" y="105.53955841064453" yaw="-90.0120849609375" z="0.0"/>
      </waypoints>
   </route>
   <route id="24" town="Town01">
      <weathers>
         <weather cloudiness="5.0" fog_density="2.0" fog_distance="0.75" fog_falloff="0.1" mie_scattering_scale="0.03" precipitation="0.0" precipitation_deposits="0.0" route_percentage="0" scattering_intensity="1.0" sun_altitude_angle="90.0" sun_azimuth_angle="-1.0" wetness="0.0" wind_intensity="10.0"/>
      </weathers>
      <scenarios>
         <scenario name="RandomRun_0" type="RandomRun">
            <trigger_point x="1.988447904586792" y="180.59896850585938" yaw="269.9700622558594" z="0.0"/>
         </scenario>
      </scenarios>
      <waypoints>
         <position x="1.988447904586792" y="180.59896850585938" yaw="269.9700622558594" z="0.0"/>
         <position x="1.9874032735824585" y="178.59896850585938" yaw="269.9700622558594" z="0.0"/>
      </waypoints>
   </route>
   <route id="25" town="Town01">
      <weathers>
         <weather cloudiness="5.0" fog_density="2.0" fog_distance="0.75" fog_falloff="0.1" mie_scattering_scale="0.03" precipitation="0.0" precipitation_deposits="0.0" route_percentage="0" scattering_intensity="1.0" sun_altitude_angle="90.0" sun_azimuth_angle="-1.0" wetness="0.0" wind_intensity="10.0"/>
      </weathers>
      <scenarios>
         <scenario name="RandomRun_0" type="RandomRun">
            <trigger_point x="338.73114013671875" y="279.451171875" yaw="270.03460693359375" z="0.0"/>
         </scenario>
      </scenarios>
      <waypoints>
         <position x="338.73114013671875" y="279.451171875" yaw="270.03460693359375" z="0.0"/>
         <position x="338.7323303222656" y="277.451171875" yaw="270.03460693359375" z="0.0"/>
      </waypoints>
   </route>
   <route id="26" town="Town01">
      <weathers>
         <weather cloudiness="5.0" fog_density="2.0" fog_distance="0.75" fog_falloff="0.1" mie_scattering_scale="0.03" precipitation="0.0" precipitation_deposits="0.0" route_percentage="0" scattering_intensity="1.0" sun_altitude_angle="90.0" sun_azimuth_angle="-1.0" wetness="0.0" wind_intensity="10.0"/>
      </weathers>
      <scenarios>
         <scenario name="RandomRun_0" type="RandomRun">
            <trigger_point x="-2.0186758041381836" y="166.96102905273438" yaw="89.9700698852539" z="0.0"/>
         </scenario>
      </scenarios>
      <waypoints>
         <position x="-2.0186758041381836" y="166.96102905273438" yaw="89.9700698852539" z="0.0"/>
         <position x="-2.0176310539245605" y="168.96102905273438" yaw="89.9700698852539" z="0.0"/>
      </waypoints>
   </route>
   <route id="27" town="Town01">
      <weathers>
         <weather cloudiness="5.0" fog_density="2.0" fog_distance="0.75" fog_falloff="0.1" mie_scattering_scale="0.03" precipitation="0.0" precipitation_deposits="0.0" route_percentage="0" scattering_intensity="1.0" sun_altitude_angle="90.0" sun_azimuth_angle="-1.0" wetness="0.0" wind_intensity="10.0"/>
      </weathers>
      <scenarios>
         <scenario name="RandomRun_0" type="RandomRun">
            <trigger_point x="356.72998046875" y="330.6099853515625" yaw="-0.0" z="0.0"/>
         </scenario>
      </scenarios>
      <waypoints>
         <position x="356.72998046875" y="330.6099853515625" yaw="-0.0" z="0.0"/>
         <position x="358.72998046875" y="330.6099853515625" yaw="-0.0" z="0.0"/>
      </waypoints>
   </route>
   <route id="28" town="Town01">
      <weathers>
         <weather cloudiness="5.0" fog_density="2.0" fog_distance="0.75" fog_falloff="0.1" mie_scattering_scale="0.03" precipitation="0.0" precipitation_deposits="0.0" route_percentage="0" scattering_intensity="1.0" sun_altitude_angle="90.0" sun_azimuth_angle="-1.0" wetness="0.0" wind_intensity="10.0"/>
      </weathers>
      <scenarios>
         <scenario name="RandomRun_0" type="RandomRun">
            <trigger_point x="168.1702423095703" y="59.49052429199219" yaw="-0.006981649901717901" z="0.0"/>
         </scenario>
      </scenarios>
      <waypoints>
         <position x="168.1702423095703" y="59.49052429199219" yaw="-0.006981649901717901" z="0.0"/>
         <position x="170.1702423095703" y="59.49028015136719" yaw="-0.006981649901717901" z="0.0"/>
      </waypoints>
   </route>
   <route id="29" town="Town01">
      <weathers>
         <weather cloudiness="5.0" fog_density="2.0" fog_distance="0.75" fog_falloff="0.1" mie_scattering_scale="0.03" precipitation="0.0" precipitation_deposits="0.0" route_percentage="0" scattering_intensity="1.0" sun_altitude_angle="90.0" sun_azimuth_angle="-1.0" wetness="0.0" wind_intensity="10.0"/>
      </weathers>
      <scenarios>
         <scenario name="RandomRun_0" type="RandomRun">
            <trigger_point x="117.6197738647461" y="330.59149169921875" yaw="0.006118634715676308" z="0.0"/>
         </scenario>
      </scenarios>
      <waypoints>
         <position x="117.6197738647461" y="330.59149169921875" yaw="0.006118634715676308" z="0.0"/>
         <position x="119.61978149414062" y="330.5917053222656" yaw="0.006118634715676308" z="0.0"/>
      </waypoints>
   </route>
   <route id="30" town="Town01">
      <weathers>
         <weather cloudiness="5.0" fog_density="2.0" fog_distance="0.75" fog_falloff="0.1" mie_scattering_scale="0.03" precipitation="0.0" precipitation_deposits="0.0" route_percentage="0" scattering_intensity="1.0" sun_altitude_angle="90.0" sun_azimuth_angle="-1.0" wetness="0.0" wind_intensity="10.0"/>
      </weathers>
      <scenarios>
         <scenario name="RandomRun_0" type="RandomRun">
            <trigger_point x="179.41908264160156" y="133.4497528076172" yaw="0.025599390268325806" z="0.0"/>
         </scenario>
      </scenarios>
      <waypoints>
         <position x="179.41908264160156" y="133.4497528076172" yaw="0.025599390268325806" z="0.0"/>
         <position x="181.41908264160156" y="133.4506378173828" yaw="0.025599390268325806" z="0.0"/>
      </waypoints>
   </route>
   <route id="31" town="Town01">
      <weathers>
         <weather cloudiness="5.0" fog_density="2.0" fog_distance="0.75" fog_falloff="0.1" mie_scattering_scale="0.03" precipitation="0.0" precipitation_deposits="0.0" route_percentage="0" scattering_intensity="1.0" sun_altitude_angle="90.0" sun_azimuth_angle="-1.0" wetness="0.0" wind_intensity="10.0"/>
      </weathers>
      <scenarios>
         <scenario name="RandomRun_0" type="RandomRun">
            <trigger_point x="392.290771484375" y="102.8503646850586" yaw="89.9879150390625" z="0.0"/>
         </scenario>
      </scenarios>
      <waypoints>
         <position x="392.290771484375" y="102.8503646850586" yaw="89.9879150390625" z="0.0"/>
         <position x="392.29119873046875" y="104.8503646850586" yaw="89.9879150390625" z="0.0"/>
      </waypoints>
   </route>
   <route id="32" town="Town01">
      <weathers>
         <weather cloudiness="5.0" fog_density="2.0" fog_distance="0.75" fog_falloff="0.1" mie_scattering_scale="0.03" precipitation="0.0" precipitation_deposits="0.0" route_percentage="0" scattering_intensity="1.0" sun_altitude_angle="90.0" sun_azimuth_angle="-1.0" wetness="0.0" wind_intensity="10.0"/>
      </weathers>
      <scenarios>
         <scenario name="RandomRun_0" type="RandomRun">
            <trigger_point x="253.1702423095703" y="59.480167388916016" yaw="-0.006981649901717901" z="0.0"/>
         </scenario>
      </scenarios>
      <waypoints>
         <position x="253.1702423095703" y="59.480167388916016" yaw="-0.006981649901717901" z="0.0"/>
         <position x="255.1702423095703" y="59.479923248291016" yaw="-0.006981649901717901" z="0.0"/>
      </waypoints>
   </route>
   <route id="33" town="Town01">
      <weathers>
         <weather cloudiness="5.0" fog_density="2.0" fog_distance="0.75" fog_falloff="0.1" mie_scattering_scale="0.03" precipitation="0.0" precipitation_deposits="0.0" route_percentage="0" scattering_intensity="1.0" sun_altitude_angle="90.0" sun_azimuth_angle="-1.0" wetness="0.0" wind_intensity="10.0"/>
      </weathers>
      <scenarios>
         <scenario name="RandomRun_0" type="RandomRun">
            <trigger_point x="279.1597595214844" y="55.47700119018555" yaw="179.99301147460938" z="0.0"/>
         </scenario>
      </scenarios>
      <waypoints>
         <position x="279.1597595214844" y="55.47700119018555" yaw="179.99301147460938" z="0.0"/>
         <position x="277.1597595214844" y="55.47724533081055" yaw="179.99301147460938" z="0.0"/>
      </waypoints>
   </route>
   <route id="34" town="Town01">
      <weathers>
         <weather cloudiness="5.0" fog_density="2.0" fog_distance="0.75" fog_falloff="0.1" mie_scattering_scale="0.03" precipitation="0.0" precipitation_deposits="0.0" route_percentage="0" scattering_intensity="1.0" sun_altitude_angle="90.0" sun_azimuth_angle="-1.0" wetness="0.0" wind_intensity="10.0"/>
      </weathers>
      <scenarios>
         <scenario name="RandomRun_0" type="RandomRun">
            <trigger_point x="-2.0465638637542725" y="52.959224700927734" yaw="90.02206420898438" z="0.0"/>
         </scenario>
      </scenarios>
      <waypoints>
         <position x="-2.0465638637542725" y="52.959224700927734" yaw="90.02206420898438" z="0.0"/>
         <position x="-2.0473341941833496" y="54.959224700927734" yaw="90.02206420898438" z="0.0"/>
      </waypoints>
   </route>
   <route id="35" town="Town01">
      <weathers>
         <weather cloudiness="5.0" fog_density="2.0" fog_distance="0.75" fog_falloff="0.1" mie_scattering_scale="0.03" precipitation="0.0" precipitation_deposits="0.0" route_percentage="0" scattering_intensity="1.0" sun_altitude_angle="90.0" sun_azimuth_angle="-1.0" wetness="0.0" wind_intensity="10.0"/>
      </weathers>
      <scenarios>
         <scenario name="RandomRun_0" type="RandomRun">
            <trigger_point x="92.41671752929688" y="307.2996826171875" yaw="269.99127197265625" z="0.0"/>
         </scenario>
      </scenarios>
      <waypoints>